field.fld: written by SWAT+ editor v1.0.0 on 2018-11-29 16:24
name                       len            wd           ang  
fld10                500.00000     100.00000      30.00000  
fld20                500.00000     100.00000      30.00000  
fld30                500.00000     100.00000      30.00000  
