hydrology.cha: written by SWAT+ editor v1.0.0 on 2018-11-29 16:24
name                        wd            dp           slp           len          mann             k           wdr     alpha_bnk      side_slp  description
hydcha1                8.22409       0.44697       0.00150       5.12260       0.05000       0.00000      18.39977       0.00000       0.00000  
hydcha2                4.75064       0.31002       0.00284       3.01920       0.05000       0.00000      15.32382       0.00000       0.00000  
hydcha3                3.52488       0.25409       0.00383       1.28910       0.05000       0.00000      13.87281       0.00000       0.00000  
