landuse.lum: written by SWAT+ editor v1.0.0 on 2018-11-29 16:24
name                         cal_group          plnt_com               mgt               cn2         cons_prac             urban            urb_ro           ov_mann              tile               sep               vfs              grww               bmp  
agrl_lum                       all_lum         agrl_comm          lrew_ag1        rc_strow_g       cross_slope              null              null      convtill_res              null              null              null              null              null  
past_lum                       all_lum         past_comm         lrew_past           pastg_f     up_down_slope              null              null        densegrass              null              null              null              null              null  
frse_lum                       all_lum         frse_comm            forest            wood_f     up_down_slope              null              null      forest_heavy              null              null              null              null              null  
frsd_lum                       all_lum         frsd_comm            forest            wood_f     up_down_slope              null              null        forest_med              null              null              null              null              null  
wetf_lum                       all_lum         wetf_comm           wetland            wood_p     up_down_slope              null              null        forest_med              null              null              null              null              null  
urld_lum                       all_lum              null            no_mgt             urban     up_down_slope              urld   buildup_washoff     urban_asphalt              null              null              null              null              null  
