pcp.cli: Precipitation file names - file written by SWAT+ editor 2018-11-29 16:20:46.167449
filename
lrew137.pcp
lrew138.pcp
lrew146.pcp
