rout_unit.ele: written by SWAT+ editor v1.0.0 on 2018-11-29 16:24
      id  name                   obj_typ    obj_id           frac               dlr  
       1  hru001                     hru         1        0.02111                 0  
       2  hru002                     hru         2        0.01066                 0  
       3  hru003                     hru         3        0.39486                 0  
       4  hru004                     hru         4        0.01179                 0  
       5  hru005                     hru         5        0.00256                 0  
       6  hru006                     hru         6        0.01783                 0  
       7  hru007                     hru         7        0.00543                 0  
       8  hru008                     hru         8        0.00113                 0  
       9  hru009                     hru         9        0.00256                 0  
      10  hru010                     hru        10        0.03003                 0  
      11  hru011                     hru        11        0.00256                 0  
      12  hru012                     hru        12        0.00113                 0  
      13  hru013                     hru        13        0.00553                 0  
      14  hru014                     hru        14        0.01681                 0  
      15  hru015                     hru        15        0.01342                 0  
      16  hru016                     hru        16        0.00738                 0  
      17  hru017                     hru        17        0.14737                 0  
      18  hru018                     hru        18        0.00820                 0  
      19  hru019                     hru        19        0.00615                 0  
      20  hru020                     hru        20        0.05063                 0  
      21  hru021                     hru        21        0.00748                 0  
      22  hru022                     hru        22        0.00676                 0  
      23  hru023                     hru        23        0.01353                 0  
      24  hru024                     hru        24        0.04899                 0  
      25  hru025                     hru        25        0.01086                 0  
      26  hru026                     hru        26        0.00246                 0  
      27  hru027                     hru        27        0.02101                 0  
      28  hru028                     hru        28        0.00195                 0  
      29  hru029                     hru        29        0.03197                 0  
      30  hru030                     hru        30        0.00307                 0  
      31  hru031                     hru        31        0.01291                 0  
      32  hru032                     hru        32        0.00082                 0  
      33  hru033                     hru        33        0.03156                 0  
      34  hru034                     hru        34        0.00031                 0  
      35  hru035                     hru        35        0.00031                 0  
      36  hru036                     hru        36        0.00051                 0  
      37  hru037                     hru        37        0.01312                 0  
      38  hru038                     hru        38        0.00082                 0  
      39  hru039                     hru        39        0.00010                 0  
      40  hru040                     hru        40        0.00236                 0  
      41  hru041                     hru        41        0.00472                 0  
      42  hru042                     hru        42        0.04297                 0  
      43  hru043                     hru        43        0.00034                 0  
      44  hru044                     hru        44        0.02208                 0  
      45  hru045                     hru        45        0.26306                 0  
      46  hru046                     hru        46        0.00489                 0  
      47  hru047                     hru        47        0.01651                 0  
      48  hru048                     hru        48        0.00944                 0  
      49  hru049                     hru        49        0.01550                 0  
      50  hru050                     hru        50        0.01399                 0  
      51  hru051                     hru        51        0.00236                 0  
      52  hru052                     hru        52        0.00371                 0  
      53  hru053                     hru        53        0.06623                 0  
      54  hru054                     hru        54        0.00303                 0  
      55  hru055                     hru        55        0.00455                 0  
      56  hru056                     hru        56        0.01011                 0  
      57  hru057                     hru        57        0.00489                 0  
      58  hru058                     hru        58        0.03960                 0  
      59  hru059                     hru        59        0.00539                 0  
      60  hru060                     hru        60        0.01803                 0  
      61  hru061                     hru        61        0.17341                 0  
      62  hru062                     hru        62        0.00725                 0  
      63  hru063                     hru        63        0.01314                 0  
      64  hru064                     hru        64        0.05140                 0  
      65  hru065                     hru        65        0.01045                 0  
      66  hru066                     hru        66        0.00337                 0  
      67  hru067                     hru        67        0.00539                 0  
      68  hru068                     hru        68        0.03573                 0  
      69  hru069                     hru        69        0.00337                 0  
      70  hru070                     hru        70        0.00253                 0  
      71  hru071                     hru        71        0.03286                 0  
      72  hru072                     hru        72        0.00067                 0  
      73  hru073                     hru        73        0.00067                 0  
      74  hru074                     hru        74        0.01651                 0  
      75  hru075                     hru        75        0.00421                 0  
      76  hru076                     hru        76        0.01264                 0  
      77  hru077                     hru        77        0.00640                 0  
      78  hru078                     hru        78        0.00202                 0  
      79  hru079                     hru        79        0.02208                 0  
      80  hru080                     hru        80        0.00051                 0  
      81  hru081                     hru        81        0.00118                 0  
      82  hru082                     hru        82        0.00067                 0  
      83  hru083                     hru        83        0.00590                 0  
      84  hru084                     hru        84        0.00522                 0  
      85  hru085                     hru        85        0.00067                 0  
      86  hru086                     hru        86        0.00011                 0  
      87  hru087                     hru        87        0.01263                 0  
      88  hru088                     hru        88        0.00023                 0  
      89  hru089                     hru        89        0.01630                 0  
      90  hru090                     hru        90        0.28550                 0  
      91  hru091                     hru        91        0.00712                 0  
      92  hru092                     hru        92        0.00712                 0  
      93  hru093                     hru        93        0.01320                 0  
      94  hru094                     hru        94        0.00023                 0  
      95  hru095                     hru        95        0.00620                 0  
      96  hru096                     hru        96        0.00758                 0  
      97  hru097                     hru        97        0.02239                 0  
      98  hru098                     hru        98        0.02652                 0  
      99  hru099                     hru        99        0.03191                 0  
     100  hru100                     hru       100        0.01378                 0  
     101  hru101                     hru       101        0.01940                 0  
     102  hru102                     hru       102        0.00080                 0  
     103  hru103                     hru       103        0.00884                 0  
     104  hru104                     hru       104        0.01320                 0  
     105  hru105                     hru       105        0.05177                 0  
     106  hru106                     hru       106        0.15394                 0  
     107  hru107                     hru       107        0.03168                 0  
     108  hru108                     hru       108        0.00528                 0  
     109  hru109                     hru       109        0.04718                 0  
     110  hru110                     hru       110        0.00092                 0  
     111  hru111                     hru       111        0.00379                 0  
     112  hru112                     hru       112        0.00907                 0  
     113  hru113                     hru       113        0.01274                 0  
     114  hru114                     hru       114        0.02032                 0  
     115  hru115                     hru       115        0.01309                 0  
     116  hru116                     hru       116        0.00310                 0  
     117  hru117                     hru       117        0.02881                 0  
     118  hru118                     hru       118        0.00023                 0  
     119  hru119                     hru       119        0.04385                 0  
     120  hru120                     hru       120        0.00425                 0  
     121  hru121                     hru       121        0.00941                 0  
     122  hru122                     hru       122        0.01596                 0  
     123  hru123                     hru       123        0.00425                 0  
     124  hru124                     hru       124        0.03031                 0  
     125  hru125                     hru       125        0.00011                 0  
     126  hru126                     hru       126        0.00023                 0  
     127  hru127                     hru       127        0.00080                 0  
     128  hru128                     hru       128        0.00402                 0  
     129  hru129                     hru       129        0.00034                 0  
     130  hru130                     hru       130        0.00011                 0  
     131  hru131                     hru       131        0.00092                 0  
