sediment.cha: written by SWAT+ editor v1.0.0 on 2018-11-29 16:24
name               sed_eqn     erod_fact      cov_fact        bd_bnk        bd_bed        kd_bnk        kd_bed       d50_bnk       d50_bed       css_bnk       css_bed         erod1         erod2         erod3         erod4         erod5         erod6         erod7         erod8         erod9        erod10        erod11        erod12  description
sedcha1                  0       0.00000       0.00000       1.40000       1.50000       0.00100       0.00100      50.00000     500.00000       0.00000       0.00000       0.00000       0.00000       0.00000       0.00000       0.00000       0.00000       0.00000       0.00000       0.00000       0.00000       0.00000       0.00000  
