snow.sno: written by SWAT+ editor v1.0.0 on 2018-11-29 16:24
name                  fall_tmp      melt_tmp      melt_max      melt_min       tmp_lag      snow_h2o         cov50     snow_init  
snow001                1.00000       0.50000       4.50000       4.50000       1.00000       1.00000       0.50000       0.00000  
