sweep.ops: written by SWAT+ editor v1.0.0 on 2018-11-29 16:24
name                   swp_eff     frac_curb  description
high_eff               0.80000       0.90000  
