time.sim: written by SWAT+ editor v1.0.0 on 2018-11-29 16:24
day_start  yrc_start   day_end   yrc_end      step  
       1      2000         366      2012         0  
