topography.hyd: written by SWAT+ editor v1.0.0 on 2018-11-29 16:24
name                       slp       slp_len       lat_len      dist_cha         depos  
topohru001             0.03444      50.00000      50.00000     100.00000       1.00000  
topohru002             0.04115      50.00000      50.00000     100.00000       1.00000  
topohru003             0.03243      50.00000      50.00000     100.00000       1.00000  
topohru004             0.04872      50.00000      50.00000     100.00000       1.00000  
topohru005             0.02335      50.00000      50.00000     100.00000       1.00000  
topohru006             0.02804      50.00000      50.00000     100.00000       1.00000  
topohru007             0.03091      50.00000      50.00000     100.00000       1.00000  
topohru008             0.02719      50.00000      50.00000     100.00000       1.00000  
topohru009             0.06276      50.00000      50.00000     100.00000       1.00000  
topohru010             0.03306      50.00000      50.00000     100.00000       1.00000  
topohru011             0.05124      50.00000      50.00000     100.00000       1.00000  
topohru012             0.02971      50.00000      50.00000     100.00000       1.00000  
topohru013             0.02658      50.00000      50.00000     100.00000       1.00000  
topohru014             0.03089      50.00000      50.00000     100.00000       1.00000  
topohru015             0.01515      50.00000      50.00000     100.00000       1.00000  
topohru016             0.05086      50.00000      50.00000     100.00000       1.00000  
topohru017             0.03805      50.00000      50.00000     100.00000       1.00000  
topohru018             0.05151      50.00000      50.00000     100.00000       1.00000  
topohru019             0.03061      50.00000      50.00000     100.00000       1.00000  
topohru020             0.02441      50.00000      50.00000     100.00000       1.00000  
topohru021             0.03254      50.00000      50.00000     100.00000       1.00000  
topohru022             0.01729      50.00000      50.00000     100.00000       1.00000  
topohru023             0.03746      50.00000      50.00000     100.00000       1.00000  
topohru024             0.04156      50.00000      50.00000     100.00000       1.00000  
topohru025             0.05393      50.00000      50.00000     100.00000       1.00000  
topohru026             0.02915      50.00000      50.00000     100.00000       1.00000  
topohru027             0.02409      50.00000      50.00000     100.00000       1.00000  
topohru028             0.02253      50.00000      50.00000     100.00000       1.00000  
topohru029             0.01224      50.00000      50.00000     100.00000       1.00000  
topohru030             0.02340      50.00000      50.00000     100.00000       1.00000  
topohru031             0.03801      50.00000      50.00000     100.00000       1.00000  
topohru032             0.01404      50.00000      50.00000     100.00000       1.00000  
topohru033             0.02184      50.00000      50.00000     100.00000       1.00000  
topohru034             0.06376      50.00000      50.00000     100.00000       1.00000  
topohru035             0.01161      50.00000      50.00000     100.00000       1.00000  
topohru036             0.04407      50.00000      50.00000     100.00000       1.00000  
topohru037             0.03242      50.00000      50.00000     100.00000       1.00000  
topohru038             0.04431      50.00000      50.00000     100.00000       1.00000  
topohru039             0.02319      50.00000      50.00000     100.00000       1.00000  
topohru040             0.03626      50.00000      50.00000     100.00000       1.00000  
topohru041             0.04660      50.00000      50.00000     100.00000       1.00000  
topohru042             0.03680      50.00000      50.00000     100.00000       1.00000  
topohru043             0.00518      50.00000      50.00000     100.00000       1.00000  
topohru044             0.02564      50.00000      50.00000     100.00000       1.00000  
topohru045             0.03162      50.00000      50.00000     100.00000       1.00000  
topohru046             0.04611      50.00000      50.00000     100.00000       1.00000  
topohru047             0.03331      50.00000      50.00000     100.00000       1.00000  
topohru048             0.02689      50.00000      50.00000     100.00000       1.00000  
topohru049             0.04340      50.00000      50.00000     100.00000       1.00000  
topohru050             0.02982      50.00000      50.00000     100.00000       1.00000  
topohru051             0.00695      50.00000      50.00000     100.00000       1.00000  
topohru052             0.02610      50.00000      50.00000     100.00000       1.00000  
topohru053             0.04267      50.00000      50.00000     100.00000       1.00000  
topohru054             0.03624      50.00000      50.00000     100.00000       1.00000  
topohru055             0.02536      50.00000      50.00000     100.00000       1.00000  
topohru056             0.01960      50.00000      50.00000     100.00000       1.00000  
topohru057             0.03655      50.00000      50.00000     100.00000       1.00000  
topohru058             0.04295      50.00000      50.00000     100.00000       1.00000  
topohru059             0.01544      50.00000      50.00000     100.00000       1.00000  
topohru060             0.03563      50.00000      50.00000     100.00000       1.00000  
topohru061             0.03976      50.00000      50.00000     100.00000       1.00000  
topohru062             0.05169      50.00000      50.00000     100.00000       1.00000  
topohru063             0.03192      50.00000      50.00000     100.00000       1.00000  
topohru064             0.02278      50.00000      50.00000     100.00000       1.00000  
topohru065             0.04034      50.00000      50.00000     100.00000       1.00000  
topohru066             0.00615      50.00000      50.00000     100.00000       1.00000  
topohru067             0.02986      50.00000      50.00000     100.00000       1.00000  
topohru068             0.03998      50.00000      50.00000     100.00000       1.00000  
topohru069             0.03465      50.00000      50.00000     100.00000       1.00000  
topohru070             0.02166      50.00000      50.00000     100.00000       1.00000  
topohru071             0.02419      50.00000      50.00000     100.00000       1.00000  
topohru072             0.02226      50.00000      50.00000     100.00000       1.00000  
topohru073             0.05518      50.00000      50.00000     100.00000       1.00000  
topohru074             0.01375      50.00000      50.00000     100.00000       1.00000  
topohru075             0.01640      50.00000      50.00000     100.00000       1.00000  
topohru076             0.03755      50.00000      50.00000     100.00000       1.00000  
topohru077             0.04685      50.00000      50.00000     100.00000       1.00000  
topohru078             0.03406      50.00000      50.00000     100.00000       1.00000  
topohru079             0.01687      50.00000      50.00000     100.00000       1.00000  
topohru080             0.02832      50.00000      50.00000     100.00000       1.00000  
topohru081             0.07084      50.00000      50.00000     100.00000       1.00000  
topohru082             0.02532      50.00000      50.00000     100.00000       1.00000  
topohru083             0.03848      50.00000      50.00000     100.00000       1.00000  
topohru084             0.06421      50.00000      50.00000     100.00000       1.00000  
topohru085             0.02427      50.00000      50.00000     100.00000       1.00000  
topohru086             0.02510      50.00000      50.00000     100.00000       1.00000  
topohru087             0.03220      50.00000      50.00000     100.00000       1.00000  
topohru088             0.02668      50.00000      50.00000     100.00000       1.00000  
topohru089             0.03703      50.00000      50.00000     100.00000       1.00000  
topohru090             0.03947      50.00000      50.00000     100.00000       1.00000  
topohru091             0.05018      50.00000      50.00000     100.00000       1.00000  
topohru092             0.02521      50.00000      50.00000     100.00000       1.00000  
topohru093             0.03675      50.00000      50.00000     100.00000       1.00000  
topohru094             0.02182      50.00000      50.00000     100.00000       1.00000  
topohru095             0.04399      50.00000      50.00000     100.00000       1.00000  
topohru096             0.01269      50.00000      50.00000     100.00000       1.00000  
topohru097             0.04158      50.00000      50.00000     100.00000       1.00000  
topohru098             0.03826      50.00000      50.00000     100.00000       1.00000  
topohru099             0.05824      50.00000      50.00000     100.00000       1.00000  
topohru100             0.02139      50.00000      50.00000     100.00000       1.00000  
topohru101             0.02742      50.00000      50.00000     100.00000       1.00000  
topohru102             0.02366      50.00000      50.00000     100.00000       1.00000  
topohru103             0.04949      50.00000      50.00000     100.00000       1.00000  
topohru104             0.01537      50.00000      50.00000     100.00000       1.00000  
topohru105             0.04877      50.00000      50.00000     100.00000       1.00000  
topohru106             0.04124      50.00000      50.00000     100.00000       1.00000  
topohru107             0.05352      50.00000      50.00000     100.00000       1.00000  
topohru108             0.02881      50.00000      50.00000     100.00000       1.00000  
topohru109             0.02864      50.00000      50.00000     100.00000       1.00000  
topohru110             0.02764      50.00000      50.00000     100.00000       1.00000  
topohru111             0.02115      50.00000      50.00000     100.00000       1.00000  
topohru112             0.01467      50.00000      50.00000     100.00000       1.00000  
topohru113             0.04051      50.00000      50.00000     100.00000       1.00000  
topohru114             0.03638      50.00000      50.00000     100.00000       1.00000  
topohru115             0.04811      50.00000      50.00000     100.00000       1.00000  
topohru116             0.01935      50.00000      50.00000     100.00000       1.00000  
topohru117             0.02511      50.00000      50.00000     100.00000       1.00000  
topohru118             0.04239      50.00000      50.00000     100.00000       1.00000  
topohru119             0.01367      50.00000      50.00000     100.00000       1.00000  
topohru120             0.03963      50.00000      50.00000     100.00000       1.00000  
topohru121             0.04168      50.00000      50.00000     100.00000       1.00000  
topohru122             0.03029      50.00000      50.00000     100.00000       1.00000  
topohru123             0.01704      50.00000      50.00000     100.00000       1.00000  
topohru124             0.02017      50.00000      50.00000     100.00000       1.00000  
topohru125             0.04698      50.00000      50.00000     100.00000       1.00000  
topohru126             0.01183      50.00000      50.00000     100.00000       1.00000  
topohru127             0.03474      50.00000      50.00000     100.00000       1.00000  
topohru128             0.04202      50.00000      50.00000     100.00000       1.00000  
topohru129             0.02274      50.00000      50.00000     100.00000       1.00000  
topohru130             0.02728      50.00000      50.00000     100.00000       1.00000  
topohru131             0.02409      50.00000      50.00000     100.00000       1.00000  
toportu10              0.03681      50.00000      50.00000     100.00000       1.00000  
toportu20              0.03231      50.00000      50.00000     100.00000       1.00000  
toportu30              0.03355      50.00000      50.00000     100.00000       1.00000  
