wnd.cli: Wind speed file names - file written by SWAT+ editor 2018-11-29 16:20:46.524397
filename
lrewuga.wnd

