aquifer.aqu: written by SWAT+ editor v1.0.0 on 2018-11-29 16:24
      id  name   aqu_init          gw_flo         gw_dp         gw_ht         no3_n         sol_p         ptl_n         ptl_p        bf_max      alpha_bf      revap_co       rchg_dp      spec_yld       hl_no3n       flo_min     revap_min  
       1  aqu1   low_init      2500.00000    1000.00000       1.00000       0.00000       0.00000       0.00000       0.00000       1.00000       0.05000       0.02000       0.05000       0.05000       0.00000    1000.00000     750.00000  
       2  aqu2   low_init      2500.00000    1000.00000       1.00000       0.00000       0.00000       0.00000       0.00000       1.00000       0.05000       0.02000       0.05000       0.05000       0.00000    1000.00000     750.00000  
       3  aqu3   low_init      2500.00000    1000.00000       1.00000       0.00000       0.00000       0.00000       0.00000       1.00000       0.05000       0.02000       0.05000       0.05000       0.00000    1000.00000     750.00000  
