hmd.cli: Relative humidity file names - file written by SWAT+ editor 2018-11-29 16:20:46.062168
filename
lrewuga.hmd

