hru.con: written by SWAT+ editor v1.0.0 on 2018-11-29 16:24
      id  name                gis_id          area           lat           lon          elev       hru               wst       cst      ovfl      rule   out_tot  
       1  hru001                   1      18.54000      31.72682     -83.74539     130.45146         1             sta01         0         0         0         0  
       2  hru002                   2       9.36000      31.72544     -83.74327     125.35577         2             sta01         0         0         0         0  
       3  hru003                   3     346.77000      31.73582     -83.75117     136.13340         3             sta01         0         0         0         0  
       4  hru004                   4      10.35000      31.72460     -83.73870     130.20870         4             sta01         0         0         0         0  
       5  hru005                   5       2.25000      31.74372     -83.75336     137.44000         5             sta01         0         0         0         0  
       6  hru006                   6      15.66000      31.73343     -83.74905     131.14368         6             sta01         0         0         0         0  
       7  hru007                   7       4.77000      31.72852     -83.74286     130.98113         7             sta01         0         0         0         0  
       8  hru008                   8       0.99000      31.73638     -83.75633     128.09091         8             sta01         0         0         0         0  
       9  hru009                   9       2.25000      31.73147     -83.74697     129.40000         9             sta01         0         0         0         0  
      10  hru010                  10      26.37000      31.73713     -83.75185     133.74061        10             sta01         0         0         0         0  
      11  hru011                  11       2.25000      31.73002     -83.74056     131.56000        11             sta01         0         0         0         0  
      12  hru012                  12       0.99000      31.73542     -83.75473     127.36364        12             sta01         0         0         0         0  
      13  hru013                  13       4.86000      31.74000     -83.75848     131.44444        13             sta01         0         0         0         0  
      14  hru014                  14      14.76000      31.72660     -83.74816     125.79268        14             sta01         0         0         0         0  
      15  hru015                  15      11.79000      31.72249     -83.74558     118.94656        15             sta01         0         0         0         0  
      16  hru016                  16       6.48000      31.73104     -83.74410     130.33333        16             sta01         0         0         0         0  
      17  hru017                  17     129.42000      31.73042     -83.75138     129.98957        17             sta01         0         0         0         0  
      18  hru018                  18       7.20000      31.72369     -83.74130     125.66250        18             sta01         0         0         0         0  
      19  hru019                  19       5.40000      31.71994     -83.74507     119.88333        19             sta01         0         0         0         0  
      20  hru020                  20      44.46000      31.73271     -83.75241     127.58704        20             sta01         0         0         0         0  
      21  hru021                  21       6.57000      31.73044     -83.74855     125.90411        21             sta01         0         0         0         0  
      22  hru022                  22       5.94000      31.72830     -83.74691     121.16667        22             sta01         0         0         0         0  
      23  hru023                  23      11.88000      31.72957     -83.74668     123.96970        23             sta01         0         0         0         0  
      24  hru024                  24      43.02000      31.72779     -83.74987     128.63598        24             sta01         0         0         0         0  
      25  hru025                  25       9.54000      31.72174     -83.74402     124.32075        25             sta01         0         0         0         0  
      26  hru026                  26       2.16000      31.74108     -83.74968     133.70833        26             sta01         0         0         0         0  
      27  hru027                  27      18.45000      31.73278     -83.74916     128.35122        27             sta01         0         0         0         0  
      28  hru028                  28       1.71000      31.74320     -83.74986     135.47368        28             sta01         0         0         0         0  
      29  hru029                  29      28.08000      31.72578     -83.74789     119.75000        29             sta01         0         0         0         0  
      30  hru030                  30       2.70000      31.72586     -83.74662     120.80000        30             sta01         0         0         0         0  
      31  hru031                  31      11.34000      31.73437     -83.75015     128.53175        31             sta01         0         0         0         0  
      32  hru032                  32       0.72000      31.73256     -83.74636     126.37500        32             sta01         0         0         0         0  
      33  hru033                  33      27.72000      31.73805     -83.75039     130.48701        33             sta01         0         0         0         0  
      34  hru034                  34       0.27000      31.72560     -83.73717     136.00000        34             sta01         0         0         0         0  
      35  hru035                  35       0.27000      31.73460     -83.75310     124.33333        35             sta01         0         0         0         0  
      36  hru036                  36       0.45000      31.73845     -83.74469     132.00000        36             sta01         0         0         0         0  
      37  hru037                  37      11.52000      31.73822     -83.74975     136.55469        37             sta01         0         0         0         0  
      38  hru038                  38       0.72000      31.72593     -83.74036     130.00000        38             sta01         0         0         0         0  
      39  hru039                  39       0.09000      31.73473     -83.75437     127.00000        39             sta01         0         0         0         0  
      40  hru040                  40       2.07000      31.73630     -83.74401     131.91304        40             sta01         0         0         0         0  
      41  hru041                  41       2.52000      31.70267     -83.75293     134.64286        41             sta02         0         0         0         0  
      42  hru042                  42      22.95000      31.70959     -83.75303     130.60000        42             sta02         0         0         0         0  
      43  hru043                  43       0.18000      31.71407     -83.75544     120.00000        43             sta02         0         0         0         0  
      44  hru044                  44      11.79000      31.71565     -83.75814     133.16031        44             sta02         0         0         0         0  
      45  hru045                  45     140.49000      31.71724     -83.75611     132.74952        45             sta02         0         0         0         0  
      46  hru046                  46       2.61000      31.70699     -83.75209     128.93103        46             sta02         0         0         0         0  
      47  hru047                  47       8.82000      31.72601     -83.76272     131.32653        47             sta02         0         0         0         0  
      48  hru048                  48       5.04000      31.71432     -83.75721     128.75000        48             sta02         0         0         0         0  
      49  hru049                  49       8.28000      31.70459     -83.75455     133.66304        49             sta02         0         0         0         0  
      50  hru050                  50       7.47000      31.70910     -83.75269     131.06024        50             sta02         0         0         0         0  
      51  hru051                  51       1.26000      31.71698     -83.75946     121.92857        51             sta02         0         0         0         0  
      52  hru052                  52       1.98000      31.71884     -83.76389     132.40909        52             sta02         0         0         0         0  
      53  hru053                  53      35.37000      31.71041     -83.75471     128.99746        53             sta02         0         0         0         0  
      54  hru054                  54       1.62000      31.70425     -83.75189     129.50000        54             sta02         0         0         0         0  
      55  hru055                  55       2.43000      31.72350     -83.76512     127.14815        55             sta02         0         0         0         0  
      56  hru056                  56       5.40000      31.70922     -83.75281     124.45000        56             sta02         0         0         0         0  
      57  hru057                  57       2.61000      31.70408     -83.74773     128.24138        57             sta02         0         0         0         0  
      58  hru058                  58      21.15000      31.70744     -83.74897     125.88936        58             sta02         0         0         0         0  
      59  hru059                  59       2.88000      31.70916     -83.74406     115.71875        59             sta02         0         0         0         0  
      60  hru060                  60       9.63000      31.70311     -83.74825     129.75701        60             sta02         0         0         0         0  
      61  hru061                  61      92.61000      31.71450     -83.75657     130.65695        61             sta02         0         0         0         0  
      62  hru062                  62       3.87000      31.70918     -83.74547     121.32558        62             sta02         0         0         0         0  
      63  hru063                  63       7.02000      31.71956     -83.75816     124.70513        63             sta02         0         0         0         0  
      64  hru064                  64      27.45000      31.71683     -83.75837     127.59016        64             sta02         0         0         0         0  
      65  hru065                  65       5.58000      31.70790     -83.74920     125.80645        65             sta02         0         0         0         0  
      66  hru066                  66       1.80000      31.71266     -83.75359     119.30000        66             sta02         0         0         0         0  
      67  hru067                  67       2.88000      31.71492     -83.75611     128.03125        67             sta02         0         0         0         0  
      68  hru068                  68      19.08000      31.71401     -83.75866     129.04245        68             sta02         0         0         0         0  
      69  hru069                  69       1.80000      31.70756     -83.75132     126.15000        69             sta02         0         0         0         0  
      70  hru070                  70       1.35000      31.72478     -83.76679     128.13333        70             sta02         0         0         0         0  
      71  hru071                  71      17.55000      31.71545     -83.75768     126.30769        71             sta02         0         0         0         0  
      72  hru072                  72       0.36000      31.70876     -83.74231     115.00000        72             sta02         0         0         0         0  
      73  hru073                  73       0.36000      31.71168     -83.74916     120.75000        73             sta02         0         0         0         0  
      74  hru074                  74       8.82000      31.71029     -83.74726     116.86735        74             sta02         0         0         0         0  
      75  hru075                  75       2.25000      31.72621     -83.76198     130.56000        75             sta02         0         0         0         0  
      76  hru076                  76       6.75000      31.71359     -83.75161     122.57333        76             sta02         0         0         0         0  
      77  hru077                  77       3.42000      31.70886     -83.74504     117.81579        77             sta02         0         0         0         0  
      78  hru078                  78       1.08000      31.71659     -83.75361     122.25000        78             sta02         0         0         0         0  
      79  hru079                  79      11.79000      31.72314     -83.76132     128.04580        79             sta02         0         0         0         0  
      80  hru080                  80       0.27000      31.70059     -83.75179     137.66667        80             sta02         0         0         0         0  
      81  hru081                  81       0.63000      31.71415     -83.75069     128.28571        81             sta02         0         0         0         0  
      82  hru082                  82       0.36000      31.70819     -83.74144     115.50000        82             sta02         0         0         0         0  
      83  hru083                  83       3.15000      31.71352     -83.75733     128.80000        83             sta02         0         0         0         0  
      84  hru084                  84       2.79000      31.70667     -83.74679     124.29032        84             sta02         0         0         0         0  
      85  hru085                  85       0.36000      31.71426     -83.75349     124.50000        85             sta02         0         0         0         0  
      86  hru086                  86       0.09000      31.70539     -83.73449     116.00000        86             sta03         0         0         0         0  
      87  hru087                  87       9.90000      31.70685     -83.72757     120.98182        87             sta03         0         0         0         0  
      88  hru088                  88       0.18000      31.70169     -83.71823     114.00000        88             sta03         0         0         0         0  
      89  hru089                  89      12.78000      31.69747     -83.72326     122.09155        89             sta03         0         0         0         0  
      90  hru090                  90     223.83000      31.70492     -83.72688     125.42782        90             sta03         0         0         0         0  
      91  hru091                  91       5.58000      31.69893     -83.72480     124.17742        91             sta03         0         0         0         0  
      92  hru092                  92       5.58000      31.70189     -83.71463     117.91935        92             sta03         0         0         0         0  
      93  hru093                  93      10.35000      31.70566     -83.72681     119.80870        93             sta03         0         0         0         0  
      94  hru094                  94       0.18000      31.70547     -83.73528     115.00000        94             sta03         0         0         0         0  
      95  hru095                  95       4.86000      31.70419     -83.72461     120.79630        95             sta03         0         0         0         0  
      96  hru096                  96       5.94000      31.70205     -83.72056     113.72727        96             sta03         0         0         0         0  
      97  hru097                  97      17.55000      31.70171     -83.72774     117.94359        97             sta03         0         0         0         0  
      98  hru098                  98      20.79000      31.70352     -83.72215     121.29437        98             sta03         0         0         0         0  
      99  hru099                  99      25.02000      31.70054     -83.72654     119.07194        99             sta03         0         0         0         0  
     100  hru100                 100      10.80000      31.70165     -83.71779     112.98333       100             sta03         0         0         0         0  
     101  hru101                 101      15.21000      31.70084     -83.71703     114.41420       101             sta03         0         0         0         0  
     102  hru102                 102       0.63000      31.70522     -83.73443     115.14286       102             sta03         0         0         0         0  
     103  hru103                 103       6.93000      31.70013     -83.71553     121.77922       103             sta03         0         0         0         0  
     104  hru104                 104      10.35000      31.70013     -83.72243     111.05217       104             sta03         0         0         0         0  
     105  hru105                 105      40.59000      31.69685     -83.72486     119.87583       105             sta03         0         0         0         0  
     106  hru106                 106     120.69000      31.70381     -83.72805     125.61148       106             sta03         0         0         0         0  
     107  hru107                 107      24.84000      31.69626     -83.71526     115.29348       107             sta03         0         0         0         0  
     108  hru108                 108       4.14000      31.70601     -83.73496     114.02174       108             sta03         0         0         0         0  
     109  hru109                 109      36.99000      31.70058     -83.72717     118.63747       109             sta03         0         0         0         0  
     110  hru110                 110       0.72000      31.70502     -83.73395     115.75000       110             sta03         0         0         0         0  
     111  hru111                 111       2.97000      31.70254     -83.72342     115.36364       111             sta03         0         0         0         0  
     112  hru112                 112       7.11000      31.69944     -83.72073     110.36709       112             sta03         0         0         0         0  
     113  hru113                 113       9.99000      31.69661     -83.72678     120.23423       113             sta03         0         0         0         0  
     114  hru114                 114      15.93000      31.70645     -83.72910     120.55932       114             sta03         0         0         0         0  
     115  hru115                 115      10.26000      31.69852     -83.72459     115.02632       115             sta03         0         0         0         0  
     116  hru116                 116       2.43000      31.70348     -83.72281     114.22222       116             sta03         0         0         0         0  
     117  hru117                 117      22.59000      31.70212     -83.72480     116.46215       117             sta03         0         0         0         0  
     118  hru118                 118       0.18000      31.70290     -83.72302     118.50000       118             sta03         0         0         0         0  
     119  hru119                 119      34.38000      31.69976     -83.71954     110.63351       119             sta03         0         0         0         0  
     120  hru120                 120       3.33000      31.69695     -83.71479     111.16216       120             sta03         0         0         0         0  
     121  hru121                 121       7.38000      31.70729     -83.72939     118.01220       121             sta03         0         0         0         0  
     122  hru122                 122      12.51000      31.69738     -83.71686     110.39568       122             sta03         0         0         0         0  
     123  hru123                 123       3.33000      31.70407     -83.72751     111.75676       123             sta03         0         0         0         0  
     124  hru124                 124      23.76000      31.70253     -83.72262     113.22727       124             sta03         0         0         0         0  
     125  hru125                 125       0.09000      31.69058     -83.70856     121.00000       125             sta03         0         0         0         0  
     126  hru126                 126       0.18000      31.69829     -83.71074     110.50000       126             sta03         0         0         0         0  
     127  hru127                 127       0.63000      31.69540     -83.71011     114.85714       127             sta03         0         0         0         0  
     128  hru128                 128       3.15000      31.70172     -83.72424     123.74286       128             sta03         0         0         0         0  
     129  hru129                 129       0.27000      31.69126     -83.70493     109.33333       129             sta03         0         0         0         0  
     130  hru130                 130       0.09000      31.70844     -83.73755     115.00000       130             sta03         0         0         0         0  
     131  hru131                 131       0.72000      31.70599     -83.72270     117.75000       131             sta03         0         0         0         0  
