hydrology.hyd: written by SWAT+ editor v1.0.0 on 2018-11-29 16:24
name                 lat_ttime       lat_sed       can_max          esco          epco   orgn_enrich   orgp_enrich       cn3_swf       bio_mix         perco      lat_orgn      lat_orgp      harg_pet     cn_plntet  
hyd1                   0.00000       0.00000       1.00000       0.95000       1.00000       0.00000       0.00000       0.50000       0.20000       0.00000       0.00000       0.00000       0.00000       1.00000  
