ls_unit.def: written by SWAT+ editor v1.0.0 on 2018-11-29 16:24
3
      id              name              area  elem_tot     elem1     elem2  
       1             rtu10         783.99000         2        86      -131  
       2             rtu20         878.22000         2         1       -40  
       3             rtu30         534.06000         2        41       -85  
