object.cnt: written by SWAT+ editor v1.0.0 on 2018-11-29 16:24
name                   ls_area      tot_area       obj       hru      lhru       rtu       mfl       aqu       cha       res       rec      exco       dlr       can       pmp       out      lcha     aqu2d       hrd       wro  
lrew_j              2143.80000    2196.27000       143       131         0         3         0         3         3         3         0         0         0         0         0         0         0         0         0         0  
