plant.ini: written by SWAT+ editor v1.0.0 on 2018-11-29 16:24
pcom_name          plt_cnt   rot_yr_ini       plt_name     lc_status      lai_init       bm_init      phu_init      plnt_pop      yrs_init      rsd_init  
agrl_comm                3            1
                                                  pnut             n       0.00000       0.00000       0.00000       0.00000       0.00000    1000.00000
                                                  corn             n       0.00000       0.00000       0.00000       0.00000       0.00000    1000.00000
						                          cots             n       0.00000       0.00000       0.00000       0.00000       0.00000    1000.00000
past_comm                1            1           
                                                  past             n       0.00000       0.00000       0.00000       0.00000       0.00000    3000.00000  
frse_comm                1            1           
                                                  frse             y       2.00000    2000.00000       0.00000       0.00000      30.00000   10000.00000  
frsd_comm                1            1           
                                                  frsd             y       2.00000    2000.00000       0.00000       0.00000      30.00000    1000.00000  
wetf_comm                1            1            
                                                  wetf             y       2.00000    2000.00000       0.00000       0.00000      30.00000   10000.00000  
