rout_unit.con: written by SWAT+ editor v1.0.0 on 2018-11-29 16:24
      id  name                gis_id          area           lat           lon          elev       rtu               wst       cst      ovfl      rule   out_tot       obj_typ    obj_id       hyd_typ          frac       obj_typ    obj_id       hyd_typ          frac     obj_typ    obj_id       hyd_typ          frac
       1  rtu10                   10     783.99000      31.70246     -83.72500     120.67111         1             sta03         0         0         0         3           cha         1           tot       0.70000           aqu         1           tot       1.00000         res         3           tot       0.30000
       2  rtu20                   20     878.22000      31.73283     -83.75018     131.45440         2             sta01         0         0         0         3           cha         2           tot       0.70000           aqu         2           tot       1.00000         res         1           tot       0.30000
       3  rtu30                   30     534.06000      31.71419     -83.75547     129.39063         3             sta02         0         0         0         3           cha         3           tot       0.70000           aqu         3           tot       1.00000         res         2           tot       0.30000
