slr.cli: Solar radiation file names - file written by SWAT+ editor 2018-11-29 16:20:46.271725
filename
lrewuga.slr


