tmp.cli: Temperature file names - file written by SWAT+ editor 2018-11-29 16:20:46.377506
filename
lrewuga.tmp
